Version 4
SHEET 1 880 680
WIRE 304 -64 256 -64
WIRE 528 -64 384 -64
WIRE 336 -32 288 -32
WIRE 448 -32 336 -32
WIRE 496 64 464 64
WIRE 288 80 288 -32
WIRE 320 80 288 80
WIRE 256 96 256 -64
WIRE 320 96 320 80
WIRE 448 96 448 -32
WIRE 256 112 256 96
WIRE 288 112 256 112
WIRE 400 112 400 64
WIRE 400 112 368 112
WIRE 416 112 400 112
WIRE 496 112 496 64
WIRE 496 112 480 112
WIRE 64 128 -16 128
WIRE 160 128 160 96
WIRE 160 128 128 128
WIRE 368 128 368 112
WIRE 368 128 352 128
WIRE 480 128 480 112
WIRE 528 128 528 -64
WIRE 528 128 480 128
WIRE 288 144 256 144
WIRE 416 144 400 144
WIRE 160 176 160 128
WIRE 256 176 256 144
WIRE 400 208 400 144
WIRE 256 336 256 176
WIRE 480 336 480 128
WIRE 480 336 336 336
FLAG -16 208 0
FLAG 320 160 0
FLAG 336 48 0
FLAG 448 160 0
FLAG 400 208 0
SYMBOL memristor 208 96 M90
SYMATTR InstName U1
SYMBOL OpAmps\\UniversalOpamp2 320 128 R0
WINDOW 0 371 -91 Left 2
SYMATTR InstName U3
SYMBOL voltage -16 112 R0
WINDOW 123 0 0 Left 0
WINDOW 39 0 0 Left 0
WINDOW 0 730 81 Left 2
WINDOW 3 -264 -65 Left 2
SYMATTR InstName V1
SYMATTR Value PULSE(0 1.2 10m 1n 1n 10m 20m)
SYMBOL OpAmps\\UniversalOpamp2 448 128 R0
WINDOW 0 251 -151 Left 2
SYMATTR InstName U4
SYMBOL voltage 336 -48 R0
WINDOW 123 0 0 Left 0
WINDOW 39 0 0 Left 0
WINDOW 0 361 -7 Left 2
SYMATTR InstName V2
SYMATTR Value 5
SYMBOL res 352 320 R90
WINDOW 0 -179 -359 VBottom 2
WINDOW 3 32 56 VTop 2
SYMATTR InstName R2
SYMATTR Value 150
SYMBOL res 400 -80 R90
WINDOW 0 259 -316 VBottom 2
WINDOW 3 -32 57 VTop 2
SYMATTR InstName R3
SYMATTR Value 150
SYMBOL diode 64 144 R270
WINDOW 0 60 647 VTop 2
WINDOW 3 62 642 VBottom 2
SYMATTR InstName D1
SYMBOL memristor 208 176 R270
SYMATTR InstName U2
SYMBOL cap 464 48 R90
WINDOW 0 -88 -196 VBottom 2
WINDOW 3 32 32 VTop 2
SYMATTR InstName C1
SYMATTR Value 26µ
TEXT -48 232 Left 2 !.tran 5
