Version 4
SHEET 1 1724 680
WIRE 400 -336 32 -336
WIRE 112 -304 48 -304
WIRE 320 -304 192 -304
WIRE 32 -272 32 -336
WIRE 112 -272 32 -272
WIRE 304 -272 288 -272
WIRE 400 -256 400 -336
WIRE 400 -256 272 -256
WIRE 512 -256 400 -256
WIRE 592 -256 512 -256
WIRE 224 -240 224 -272
WIRE 240 -240 224 -240
WIRE 304 -224 304 -272
WIRE 320 -224 320 -304
WIRE 320 -224 304 -224
WIRE 368 -224 320 -224
WIRE 48 -208 48 -304
WIRE 112 -208 112 -272
WIRE 48 -192 48 -208
WIRE 80 -192 48 -192
WIRE -160 -176 -368 -176
WIRE -48 -176 -48 -208
WIRE -48 -176 -96 -176
WIRE 224 -176 224 -240
WIRE 224 -176 144 -176
WIRE 512 -176 512 -256
WIRE 512 -176 416 -176
WIRE -48 -160 -48 -176
WIRE 64 -160 48 -160
WIRE 80 -160 64 -160
WIRE 368 -160 368 -224
WIRE 384 -160 368 -160
WIRE 224 -144 192 -144
WIRE 304 -144 304 -224
WIRE 64 -128 64 -160
WIRE 192 -128 192 -144
WIRE 192 -128 64 -128
WIRE 384 -128 368 -128
WIRE 176 -112 48 -112
WIRE 48 -96 48 -112
WIRE 160 -96 112 -96
WIRE 176 -96 176 -112
WIRE 320 -96 256 -96
WIRE -368 -80 -368 -96
WIRE 48 -80 48 -96
WIRE 80 -80 48 -80
WIRE 400 -80 272 -80
WIRE 624 -80 400 -80
WIRE -160 -64 -384 -64
WIRE -48 -64 -48 -96
WIRE -48 -64 -96 -64
WIRE 224 -64 144 -64
WIRE 304 -64 288 -64
WIRE -48 -48 -48 -64
WIRE 64 -48 48 -48
WIRE 80 -48 64 -48
WIRE 272 -32 272 -80
WIRE 224 -16 224 -64
WIRE 240 -16 224 -16
WIRE 304 0 304 -64
WIRE 320 0 320 -96
WIRE 320 0 304 0
WIRE 368 0 368 -128
WIRE 368 0 320 0
WIRE 624 16 624 0
WIRE -384 32 -384 16
WIRE 64 64 64 -48
WIRE 176 64 64 64
WIRE 304 64 304 0
WIRE 304 64 256 64
WIRE 160 96 160 -96
WIRE 400 96 400 -80
WIRE 400 96 160 96
FLAG 112 -32 0
FLAG 112 -144 0
FLAG 272 -192 0
FLAG 272 32 0
FLAG 240 -208 0
FLAG 240 16 0
FLAG 592 -176 0
FLAG 624 16 0
FLAG -368 -80 0
FLAG -384 32 0
FLAG 416 -112 0
FLAG 448 -144 Out
IOPIN 448 -144 Out
SYMBOL diode -160 -160 R270
WINDOW 0 283 -328 VTop 2
WINDOW 3 341 -441 VBottom 2
SYMATTR InstName D1
SYMBOL diode -160 -48 R270
WINDOW 0 371 -323 VTop 2
WINDOW 3 425 -437 VBottom 2
SYMATTR InstName D2
SYMBOL memristor 0 -208 R270
SYMATTR InstName U1
SYMBOL memristor 0 -160 R270
SYMATTR InstName U2
SYMBOL memristor 0 -96 R270
SYMATTR InstName U3
SYMBOL memristor 0 -48 R270
SYMATTR InstName U4
SYMBOL OpAmps\\UniversalOpamp2 112 -176 R0
WINDOW 0 -620 -311 Left 2
SYMATTR InstName U5
SYMBOL OpAmps\\UniversalOpamp2 112 -64 R0
WINDOW 0 -720 -341 Left 2
SYMATTR InstName U6
SYMBOL OpAmps\\UniversalOpamp2 272 -224 R0
WINDOW 0 -877 -215 Left 2
SYMATTR InstName U7
SYMBOL OpAmps\\UniversalOpamp2 272 0 R0
WINDOW 0 -921 -458 Left 2
SYMATTR InstName U8
SYMBOL res 208 -320 R90
WINDOW 0 -126 773 VBottom 2
WINDOW 3 32 56 VTop 2
SYMATTR InstName R3
SYMATTR Value 120
SYMBOL res 320 -160 R90
WINDOW 0 -231 798 VBottom 2
WINDOW 3 32 56 VTop 2
SYMATTR InstName R4
SYMATTR Value 120
SYMBOL res 272 -112 R90
WINDOW 0 -359 902 VBottom 2
WINDOW 3 32 56 VTop 2
SYMATTR InstName R5
SYMATTR Value 120
SYMBOL res 272 48 R90
WINDOW 0 -465 896 VBottom 2
WINDOW 3 32 56 VTop 2
SYMATTR InstName R6
SYMATTR Value 120
SYMBOL voltage 592 -272 R0
WINDOW 0 -1167 -134 Left 2
SYMATTR InstName V1
SYMATTR Value 5
SYMBOL voltage 624 -96 R0
WINDOW 0 -1159 -308 Left 2
SYMATTR InstName V2
SYMATTR Value 5
SYMBOL voltage -368 -192 R0
WINDOW 123 0 0 Left 0
WINDOW 39 0 0 Left 0
WINDOW 0 -205 -241 Left 2
WINDOW 3 -37 -47 Left 2
SYMATTR InstName V3
SYMATTR Value SINE(0 1 2 0)
SYMBOL voltage -384 -80 R0
WINDOW 123 0 0 Left 0
WINDOW 39 0 0 Left 0
WINDOW 0 -153 -351 Left 2
SYMATTR InstName V4
SYMATTR Value SINE(0 1 1 0)
SYMBOL OpAmps\\UniversalOpamp2 416 -144 R0
WINDOW 0 -998 -344 Left 2
SYMATTR InstName U9
SYMBOL cap 288 -288 R90
WINDOW 0 -186 819 VBottom 2
WINDOW 3 32 32 VTop 2
SYMATTR InstName C1
SYMATTR Value 26µ
SYMBOL cap 288 -80 R90
WINDOW 0 -364 814 VBottom 2
WINDOW 3 32 32 VTop 2
SYMATTR InstName C2
SYMATTR Value 26µ
TEXT -192 112 Left 2 !.tran 15
